reduced_networks/ieee123/57pct/dss/Loads.dss
! Phase-wise constant-PQ injections aggregated by assignment; positive DSS power is consumption.
new Load.agg_4 phases=1 bus1=150r.1 conn=wye kv=2.401777119828843 kw=-1.207725e-06 kvar=1.99923e-06 model=1
new Load.agg_5 phases=1 bus1=150r.2 conn=wye kv=2.401777119828843 kw=1.42887e-06 kvar=1.266995e-06 model=1
new Load.agg_6 phases=1 bus1=150r.3 conn=wye kv=2.401777119828843 kw=-1.790065e-06 kvar=-1.73074e-06 model=1
new Load.agg_7 phases=1 bus1=149.1 conn=wye kv=2.401777119828843 kw=8.6055e-07 kvar=-1.87342e-06 model=1
new Load.agg_8 phases=1 bus1=149.2 conn=wye kv=2.401777119828843 kw=-1.143785e-06 kvar=-1.33069e-06 model=1
new Load.agg_9 phases=1 bus1=149.3 conn=wye kv=2.401777119828843 kw=7.4141e-07 kvar=1.9836e-06 model=1
new Load.agg_10 phases=1 bus1=1.1 conn=wye kv=2.401777119828843 kw=40.00016764722501 kvar=20.000086742575 model=1
new Load.agg_11 phases=1 bus1=1.2 conn=wye kv=2.401777119828843 kw=19.999989522075 kvar=9.99999004425 model=1
new Load.agg_12 phases=1 bus1=1.3 conn=wye kv=2.401777119828843 kw=-1.9e-10 kvar=-1.1e-10 model=1
new Load.agg_13 phases=1 bus1=3.3 conn=wye kv=2.401777119828843 kw=102.61174100629 kvar=51.30588498479 model=1
new Load.agg_14 phases=1 bus1=7.1 conn=wye kv=2.401777119828843 kw=20.000148079175 kvar=10.00007564727 model=1
new Load.agg_15 phases=1 bus1=7.2 conn=wye kv=2.401777119828843 kw=1.05e-10 kvar=1.05e-10 model=1
new Load.agg_16 phases=1 bus1=7.3 conn=wye kv=2.401777119828843 kw=9.999999999999999e-11 kvar=8.000000000000001e-11 model=1
new Load.agg_17 phases=1 bus1=8.1 conn=wye kv=2.401777119828843 kw=2.5e-11 kvar=-1.6e-10 model=1
new Load.agg_18 phases=1 bus1=8.2 conn=wye kv=2.401777119828843 kw=19.999973927725 kvar=9.999977197739998 model=1
new Load.agg_19 phases=1 bus1=8.3 conn=wye kv=2.401777119828843 kw=-2e-11 kvar=-7.5e-11 model=1
new Load.agg_20 phases=1 bus1=9.1 conn=wye kv=2.401777119828843 kw=40.0003819314 kvar=20.000193182565 model=1
new Load.agg_21 phases=1 bus1=13.1 conn=wye kv=2.401777119828843 kw=4.52185e-06 kvar=-4.413505e-06 model=1
new Load.agg_22 phases=1 bus1=13.2 conn=wye kv=2.401777119828843 kw=1.54287e-06 kvar=2.57061e-06 model=1
new Load.agg_23 phases=1 bus1=13.3 conn=wye kv=2.401777119828843 kw=41.05973811874501 kvar=20.52987053941 model=1
new Load.agg_24 phases=1 bus1=9r.1 conn=wye kv=2.401777119828843 kw=4.43e-09 kvar=-3.725e-09 model=1
new Load.agg_25 phases=1 bus1=14.1 conn=wye kv=2.401777119828843 kw=60.65784619247999 kvar=30.32892352455 model=1
new Load.agg_26 phases=1 bus1=18.1 conn=wye kv=2.401777119828843 kw=40.00105456241 kvar=20.00052380083 model=1
new Load.agg_27 phases=1 bus1=18.2 conn=wye kv=2.401777119828843 kw=42.05760853284999 kvar=21.028797673615 model=1
new Load.agg_28 phases=1 bus1=18.3 conn=wye kv=2.401777119828843 kw=-5.10692e-06 kvar=3.203835e-06 model=1
new Load.agg_29 phases=1 bus1=15.3 conn=wye kv=2.401777119828843 kw=59.997856554655 kvar=29.99895193044 model=1
new Load.agg_30 phases=1 bus1=20.1 conn=wye kv=2.401777119828843 kw=39.64450384983 kvar=19.82224958633 model=1
new Load.agg_31 phases=1 bus1=23.1 conn=wye kv=2.401777119828843 kw=1.3e-10 kvar=-1.05e-10 model=1
new Load.agg_32 phases=1 bus1=23.2 conn=wye kv=2.401777119828843 kw=5e-11 kvar=-7.5e-11 model=1
new Load.agg_33 phases=1 bus1=23.3 conn=wye kv=2.401777119828843 kw=39.9968538501 kvar=19.998436155925 model=1
new Load.agg_34 phases=1 bus1=25.1 conn=wye kv=2.401777119828843 kw=78.94456959121 kvar=39.47228173921501 model=1
new Load.agg_35 phases=1 bus1=25.2 conn=wye kv=2.401777119828843 kw=3e-11 kvar=1.2e-10 model=1
new Load.agg_36 phases=1 bus1=25.3 conn=wye kv=2.401777119828843 kw=39.99649761174501 kvar=19.99825677765 model=1
new Load.agg_37 phases=1 bus1=25r.1 conn=wye kv=2.401777119828843 kw=40.08529469705 kvar=20.042648163545 model=1
new Load.agg_38 phases=1 bus1=25r.3 conn=wye kv=2.401777119828843 kw=39.995255355145 kvar=19.99763744225499 model=1
new Load.agg_39 phases=1 bus1=35.1 conn=wye kv=2.401777119828843 kw=64.55493306055001 kvar=17.53360210591 model=1
new Load.agg_40 phases=1 bus1=35.2 conn=wye kv=2.401777119828843 kw=55.01517400340499 kvar=42.25142861387499 model=1
new Load.agg_41 phases=1 bus1=35.3 conn=wye kv=2.401777119828843 kw=19.99878271922 kvar=9.999396234119999 model=1
new Load.agg_42 phases=1 bus1=42.1 conn=wye kv=2.401777119828843 kw=59.71657768136501 kvar=29.85827963784 model=1
new Load.agg_43 phases=1 bus1=42.2 conn=wye kv=2.401777119828843 kw=41.6648394066 kvar=20.8324197032 model=1
new Load.agg_44 phases=1 bus1=42.3 conn=wye kv=2.401777119828843 kw=-1.55e-10 kvar=-4.5e-11 model=1
new Load.agg_45 phases=1 bus1=47.1 conn=wye kv=2.401777119828843 kw=157.273493739215 kvar=108.052371140665 model=1
new Load.agg_46 phases=1 bus1=47.2 conn=wye kv=2.401777119828843 kw=178.38108944657 kvar=127.41499667405 model=1
new Load.agg_47 phases=1 bus1=47.3 conn=wye kv=2.401777119828843 kw=180.16618862378 kvar=115.11953035691 model=1
new Load.agg_48 phases=1 bus1=52.1 conn=wye kv=2.401777119828843 kw=40.000496470165 kvar=20.00024699748 model=1
new Load.agg_49 phases=1 bus1=52.2 conn=wye kv=2.401777119828843 kw=1.45e-10 kvar=8.000000000000001e-11 model=1
new Load.agg_50 phases=1 bus1=52.3 conn=wye kv=2.401777119828843 kw=1.3e-10 kvar=1.95e-10 model=1
new Load.agg_51 phases=1 bus1=53.1 conn=wye kv=2.401777119828843 kw=59.67418729300001 kvar=29.83709163882 model=1
new Load.agg_52 phases=1 bus1=53.2 conn=wye kv=2.401777119828843 kw=19.999969086285 kvar=9.99997383458 model=1
new Load.agg_53 phases=1 bus1=53.3 conn=wye kv=2.401777119828843 kw=-5.499999999999997e-11 kvar=-5.500000000000001e-11 model=1
new Load.agg_54 phases=1 bus1=57.1 conn=wye kv=2.401777119828843 kw=-5.5e-11 kvar=1e-11 model=1
new Load.agg_55 phases=1 bus1=57.2 conn=wye kv=2.401777119828843 kw=40.500608406765 kvar=20.250290339185 model=1
new Load.agg_56 phases=1 bus1=57.3 conn=wye kv=2.401777119828843 kw=-1.6e-10 kvar=-0 model=1
new Load.agg_57 phases=1 bus1=60.1 conn=wye kv=2.401777119828843 kw=20.00021445827 kvar=10.000107892265 model=1
new Load.agg_58 phases=1 bus1=60.2 conn=wye kv=2.401777119828843 kw=-2.265925e-06 kvar=-1.384225e-06 model=1
new Load.agg_59 phases=1 bus1=60.3 conn=wye kv=2.401777119828843 kw=3.2623e-07 kvar=-3.11404e-06 model=1
new Load.agg_60 phases=1 bus1=61.1 conn=wye kv=2.401777119828843 kw=4.809105e-06 kvar=3.709765e-06 model=1
new Load.agg_61 phases=1 bus1=61.2 conn=wye kv=2.401777119828843 kw=8.182e-07 kvar=1.88675e-07 model=1
new Load.agg_62 phases=1 bus1=61.3 conn=wye kv=2.401777119828843 kw=-1.299815e-06 kvar=-2.761e-08 model=1
new Load.agg_63 phases=1 bus1=62.1 conn=wye kv=2.401777119828843 kw=40.000431883775 kvar=20.000209425615 model=1
new Load.agg_64 phases=1 bus1=62.2 conn=wye kv=2.401777119828843 kw=6.500000000000001e-11 kvar=9.999999999999999e-11 model=1
new Load.agg_65 phases=1 bus1=62.3 conn=wye kv=2.401777119828843 kw=39.80554773666499 kvar=19.90277386842 model=1
new Load.agg_66 phases=1 bus1=64.1 conn=wye kv=2.401777119828843 kw=2.5e-11 kvar=-3.5e-11 model=1
new Load.agg_67 phases=1 bus1=64.2 conn=wye kv=2.401777119828843 kw=76.26791540251 kvar=35.591683004255 model=1
new Load.agg_68 phases=1 bus1=64.3 conn=wye kv=2.401777119828843 kw=6.5e-11 kvar=-4.5e-11 model=1
new Load.agg_69 phases=1 bus1=65.1 conn=wye kv=2.401777119828843 kw=44.283012057685 kvar=45.44102377728 model=1
new Load.agg_70 phases=1 bus1=65.2 conn=wye kv=2.401777119828843 kw=35.47474788652 kvar=25.460189801155 model=1
new Load.agg_71 phases=1 bus1=65.3 conn=wye kv=2.401777119828843 kw=133.6093272331 kvar=62.93300143373501 model=1
new Load.agg_72 phases=1 bus1=67.1 conn=wye kv=2.401777119828843 kw=20.00021957965 kvar=10.0001170371 model=1
new Load.agg_73 phases=1 bus1=67.2 conn=wye kv=2.401777119828843 kw=4.5e-11 kvar=8.000000000000001e-11 model=1
new Load.agg_74 phases=1 bus1=67.3 conn=wye kv=2.401777119828843 kw=1e-11 kvar=1.4e-10 model=1
new Load.agg_75 phases=1 bus1=72.1 conn=wye kv=2.401777119828843 kw=1.55e-10 kvar=-1.05e-10 model=1
new Load.agg_76 phases=1 bus1=72.2 conn=wye kv=2.401777119828843 kw=-7.5e-11 kvar=-8.5e-11 model=1
new Load.agg_77 phases=1 bus1=72.3 conn=wye kv=2.401777119828843 kw=7e-11 kvar=-2.95e-10 model=1
new Load.agg_78 phases=1 bus1=97.1 conn=wye kv=2.401777119828843 kw=40.00042977147501 kvar=20.00023029803 model=1
new Load.agg_79 phases=1 bus1=97.2 conn=wye kv=2.401777119828843 kw=39.999969898595 kvar=19.99995588162 model=1
new Load.agg_80 phases=1 bus1=97.3 conn=wye kv=2.401777119828843 kw=42.70436357045001 kvar=21.35218444994 model=1
new Load.agg_81 phases=1 bus1=69.1 conn=wye kv=2.401777119828843 kw=60.00065555587999 kvar=30.000348356685 model=1
new Load.agg_82 phases=1 bus1=71.1 conn=wye kv=2.401777119828843 kw=40.00043555022 kvar=20.000230946865 model=1
new Load.agg_83 phases=1 bus1=73.3 conn=wye kv=2.401777119828843 kw=39.9986188393 kvar=19.999347613495 model=1
new Load.agg_84 phases=1 bus1=76.1 conn=wye kv=2.401777119828843 kw=144.489756608935 kvar=77.51075497383 model=1
new Load.agg_85 phases=1 bus1=76.2 conn=wye kv=2.401777119828843 kw=141.27544691463 kvar=108.941747448315 model=1
new Load.agg_86 phases=1 bus1=76.3 conn=wye kv=2.401777119828843 kw=72.30627719320501 kvar=52.29550964726 model=1
new Load.agg_87 phases=1 bus1=74.3 conn=wye kv=2.401777119828843 kw=82.49391300126 kvar=41.24699119507999 model=1
new Load.agg_88 phases=1 bus1=80.1 conn=wye kv=2.401777119828843 kw=-5.000000000000001e-12 kvar=5.5e-11 model=1
new Load.agg_89 phases=1 bus1=80.2 conn=wye kv=2.401777119828843 kw=39.99997562137001 kvar=19.99995479103 model=1
new Load.agg_90 phases=1 bus1=80.3 conn=wye kv=2.401777119828843 kw=1e-11 kvar=-9.999999999999999e-11 model=1
new Load.agg_91 phases=1 bus1=81.1 conn=wye kv=2.401777119828843 kw=-5e-11 kvar=-1.85e-10 model=1
new Load.agg_92 phases=1 bus1=81.2 conn=wye kv=2.401777119828843 kw=1.95e-10 kvar=-4e-11 model=1
new Load.agg_93 phases=1 bus1=81.3 conn=wye kv=2.401777119828843 kw=6e-11 kvar=1.65e-10 model=1
new Load.agg_94 phases=1 bus1=82.1 conn=wye kv=2.401777119828843 kw=40.000433969105 kvar=20.00023476068 model=1
new Load.agg_95 phases=1 bus1=82.2 conn=wye kv=2.401777119828843 kw=-1.5e-11 kvar=-4.999999999999994e-12 model=1
new Load.agg_96 phases=1 bus1=82.3 conn=wye kv=2.401777119828843 kw=19.99930087388 kvar=9.999673141735 model=1
new Load.agg_97 phases=1 bus1=84.3 conn=wye kv=2.401777119828843 kw=59.997938534755 kvar=29.999028283465 model=1
new Load.agg_98 phases=1 bus1=87.1 conn=wye kv=2.401777119828843 kw=80.00085286722998 kvar=40.00045565700499 model=1
new Load.agg_99 phases=1 bus1=87.2 conn=wye kv=2.401777119828843 kw=121.65062752405 kvar=60.82524329204999 model=1
new Load.agg_100 phases=1 bus1=87.3 conn=wye kv=2.401777119828843 kw=39.99861941453999 kvar=19.999353454085 model=1
new Load.agg_101 phases=1 bus1=197.1 conn=wye kv=2.401777119828843 kw=4.710955e-06 kvar=2.261815e-06 model=1
new Load.agg_102 phases=1 bus1=197.2 conn=wye kv=2.401777119828843 kw=-3.02178e-06 kvar=-1.684e-06 model=1
new Load.agg_103 phases=1 bus1=197.3 conn=wye kv=2.401777119828843 kw=3.1234e-07 kvar=-1.877925e-06 model=1
new Load.agg_104 phases=1 bus1=101.1 conn=wye kv=2.401777119828843 kw=-1.15e-10 kvar=-1.7e-10 model=1
new Load.agg_105 phases=1 bus1=101.2 conn=wye kv=2.401777119828843 kw=3e-11 kvar=-2e-11 model=1
new Load.agg_106 phases=1 bus1=101.3 conn=wye kv=2.401777119828843 kw=19.999310492595 kvar=9.99967411832 model=1
new Load.agg_107 phases=1 bus1=105.1 conn=wye kv=2.401777119828843 kw=8.5e-11 kvar=9.000000000000001e-11 model=1
new Load.agg_108 phases=1 bus1=105.2 conn=wye kv=2.401777119828843 kw=39.99996755594 kvar=19.99995381135 model=1
new Load.agg_109 phases=1 bus1=105.3 conn=wye kv=2.401777119828843 kw=3e-11 kvar=7e-11 model=1
new Load.agg_110 phases=1 bus1=103.3 conn=wye kv=2.401777119828843 kw=39.99862951703 kvar=19.9993504493 model=1
new Load.agg_111 phases=1 bus1=104.3 conn=wye kv=2.401777119828843 kw=39.998638678125 kvar=19.99935283026 model=1
new Load.agg_112 phases=1 bus1=107.2 conn=wye kv=2.401777119828843 kw=39.999965744465 kvar=19.999953964905 model=1
new Load.agg_113 phases=1 bus1=109.1 conn=wye kv=2.401777119828843 kw=40.00042860178999 kvar=20.00022619866 model=1
new Load.agg_114 phases=1 bus1=110.1 conn=wye kv=2.401777119828843 kw=40.6099436508 kvar=20.304980061295 model=1
new Load.agg_115 phases=1 bus1=113.1 conn=wye kv=2.401777119828843 kw=62.30330714225001 kvar=31.1516585878 model=1
new Load.agg_116 phases=1 bus1=135.1 conn=wye kv=2.401777119828843 kw=9.608599999999999e-07 kvar=-1.9981e-07 model=1
new Load.agg_117 phases=1 bus1=135.2 conn=wye kv=2.401777119828843 kw=5.99605e-07 kvar=6.25678e-06 model=1
new Load.agg_118 phases=1 bus1=135.3 conn=wye kv=2.401777119828843 kw=4.31153e-06 kvar=-2.973274999999999e-06 model=1
new Load.agg_119 phases=1 bus1=152.1 conn=wye kv=2.401777119828843 kw=-4.31341e-06 kvar=4.386635e-06 model=1
new Load.agg_120 phases=1 bus1=152.2 conn=wye kv=2.401777119828843 kw=-9.005e-07 kvar=-2.2204e-06 model=1
new Load.agg_121 phases=1 bus1=152.3 conn=wye kv=2.401777119828843 kw=-3.329245e-06 kvar=-2.512705e-06 model=1
new Load.agg_122 phases=1 bus1=160r.1 conn=wye kv=2.401777119828843 kw=-7.69e-09 kvar=-4.274999999999999e-09 model=1
new Load.agg_123 phases=1 bus1=160r.2 conn=wye kv=2.401777119828843 kw=-1.1595e-08 kvar=-9.575e-09 model=1
new Load.agg_124 phases=1 bus1=160r.3 conn=wye kv=2.401777119828843 kw=-3.07e-09 kvar=-4.279999999999999e-09 model=1
new Load.agg_125 phases=1 bus1=160.1 conn=wye kv=2.401777119828843 kw=3.307025e-06 kvar=-2.065025e-06 model=1
new Load.agg_126 phases=1 bus1=160.2 conn=wye kv=2.401777119828843 kw=2.76936e-06 kvar=1.069465e-06 model=1
new Load.agg_127 phases=1 bus1=160.3 conn=wye kv=2.401777119828843 kw=1.88175e-07 kvar=3.385045e-06 model=1
new Load.agg_128 phases=1 bus1=61s.1 conn=wye kv=2.401777119828843 kw=-4.8935e-06 kvar=-3.626665e-06 model=1
new Load.agg_129 phases=1 bus1=61s.2 conn=wye kv=2.401777119828843 kw=7.808849999999999e-07 kvar=2.14085e-07 model=1
new Load.agg_130 phases=1 bus1=61s.3 conn=wye kv=2.401777119828843 kw=1.86821e-06 kvar=9.627e-08 model=1
new Load.agg_131 phases=1 bus1=610.1 conn=wye kv=0.2771281292110204 kw=-0 kvar=-5.000000000000001e-12 model=1
new Load.agg_132 phases=1 bus1=610.2 conn=wye kv=0.2771281292110204 kw=-0 kvar=-5.000000000000001e-12 model=1
new Load.agg_133 phases=1 bus1=610.3 conn=wye kv=0.2771281292110204 kw=-0 kvar=-5.000000000000001e-12 model=1
